
Version,                  
    7.2;                      !- Version Identifier

SimulationControl,        
    YES,                      !- Do Zone Sizing Calculation
    YES,                      !- Do System Sizing Calculation
    YES,                      !- Do Plant Sizing Calculation
    NO,                       !- Run Simulation for Sizing Periods
    YES;                      !- Run Simulation for Weather File Run Periods

Building,                 
    Ref Bldg Large Office New2004_v1.3_5.0,    !- Name
    0.0,                      !- North Axis
    City,                     !- Terrain
    0.04,                     !- Loads Convergence Tolerance Value
    0.2,                      !- Temperature Convergence Tolerance Value
    FullInteriorAndExterior,    !- Solar Distribution
    25,                       !- Maximum Number of Warmup Days
    6;                        !- Minimum Number of Warmup Days

Timestep,                 
    6;                        !- Number of Timesteps per Hour

Site:Location,            
    USA IL-CHICAGO-OHARE,     !- Name
    41.77,                    !- Latitude
    -87.75,                   !- Longitude
    -6.0,                     !- Time Zone
    190.0;                    !- Elevation

RunPeriod,                
    ,                         !- Name
    1,                        !- Begin Month
    1,                        !- Begin Day of Month
    12,                       !- End Month
    31,                       !- End Day of Month
    Sunday,                   !- Day of Week for Start Day
    No,                       !- Use Weather File Holidays and Special Days
    No,                       !- Use Weather File Daylight Saving Period
    No,                       !- Apply Weekend Holiday Rule
    Yes,                      !- Use Weather File Rain Indicators
    Yes,                      !- Use Weather File Snow Indicators
    1.0000;                   !- Number of Times Runperiod to be Repeated

RunPeriodControl:SpecialDays,
    New Years Day,            !- Name
    January 1,                !- Start Date
    1,                        !- Duration
    Holiday;                  !- Special Day Type

RunPeriodControl:SpecialDays,
    Veterans Day,             !- Name
    November 11,              !- Start Date
    1,                        !- Duration
    Holiday;                  !- Special Day Type

RunPeriodControl:SpecialDays,
    Christmas,                !- Name
    December 25,              !- Start Date
    1,                        !- Duration
    Holiday;                  !- Special Day Type

RunPeriodControl:SpecialDays,
    Independence Day,         !- Name
    July 4,                   !- Start Date
    1,                        !- Duration
    Holiday;                  !- Special Day Type

RunPeriodControl:SpecialDays,
    MLK Day,                  !- Name
    3rd Monday in January,    !- Start Date
    1,                        !- Duration
    Holiday;                  !- Special Day Type

RunPeriodControl:SpecialDays,
    Presidents Day,           !- Name
    3rd Monday in February,    !- Start Date
    1,                        !- Duration
    Holiday;                  !- Special Day Type

RunPeriodControl:SpecialDays,
    Memorial Day,             !- Name
    Last Monday in May,       !- Start Date
    1,                        !- Duration
    Holiday;                  !- Special Day Type

RunPeriodControl:SpecialDays,
    Labor Day,                !- Name
    1st Monday in September,    !- Start Date
    1,                        !- Duration
    Holiday;                  !- Special Day Type

RunPeriodControl:SpecialDays,
    Columbus Day,             !- Name
    2nd Monday in October,    !- Start Date
    1,                        !- Duration
    Holiday;                  !- Special Day Type

RunPeriodControl:SpecialDays,
    Thanksgiving,             !- Name
    4th Thursday in November,    !- Start Date
    1,                        !- Duration
    Holiday;                  !- Special Day Type

RunPeriodControl:DaylightSavingTime,
    2nd Sunday in March,      !- Start Date
    1st Sunday in November;    !- End Date

Site:GroundTemperature:BuildingSurface,
    19.527,                   !- January Ground Temperature
    19.502,                   !- February Ground Temperature
    19.536,                   !- March Ground Temperature
    19.598,                   !- April Ground Temperature
    20.002,                   !- May Ground Temperature
    21.64,                    !- June Ground Temperature
    22.225,                   !- July Ground Temperature
    22.375,                   !- August Ground Temperature
    21.449,                   !- September Ground Temperature
    20.121,                   !- October Ground Temperature
    19.802,                   !- November Ground Temperature
    19.633;                   !- December Ground Temperature

Site:WaterMainsTemperature,
    CORRELATION,              !- Calculation Method
    ,                         !- Temperature Schedule Name
    9.69,                     !- Annual Average Outdoor Air Temperature
    28.1;                     !- Maximum Difference In Monthly Average Outdoor Air Temperatures

ScheduleTypeLimits,       
    Any Number;               !- Name

ScheduleTypeLimits,       
    Fraction,                 !- Name
    0.0,                      !- Lower Limit Value
    1.0,                      !- Upper Limit Value
    CONTINUOUS;               !- Numeric Type

ScheduleTypeLimits,       
    Temperature,              !- Name
    -60,                      !- Lower Limit Value
    200,                      !- Upper Limit Value
    CONTINUOUS;               !- Numeric Type

ScheduleTypeLimits,       
    On/Off,                   !- Name
    0,                        !- Lower Limit Value
    1,                        !- Upper Limit Value
    DISCRETE;                 !- Numeric Type

ScheduleTypeLimits,       
    Control Type,             !- Name
    0,                        !- Lower Limit Value
    4,                        !- Upper Limit Value
    DISCRETE;                 !- Numeric Type

ScheduleTypeLimits,       
    Humidity,                 !- Name
    10,                       !- Lower Limit Value
    90,                       !- Upper Limit Value
    CONTINUOUS;               !- Numeric Type

ScheduleTypeLimits,       
    Number;                   !- Name

Schedule:Compact,         
    ALWAYS_ON,                !- Name
    On/Off,                   !- Schedule Type Limits Name
    Through: 12/31,           !- Field 1
    For: AllDays,             !- Field 2
    Until: 24:00,             !- Field 3
    1;                        !- Field 4

Schedule:Compact,         
    BLDG_ELEVATORS,           !- Name
    Fraction,                 !- Schedule Type Limits Name
    Through: 12/31,           !- Field 1
    For: AllDays,             !- Field 2
    Until: 04:00,             !- Field 3
    0.05,                     !- Field 4
    Until: 05:00,             !- Field 5
    0.10,                     !- Field 6
    Until: 06:00,             !- Field 7
    0.20,                     !- Field 8
    Until: 07:00,             !- Field 9
    0.40,                     !- Field 10
    Until: 09:00,             !- Field 11
    0.50,                     !- Field 12
    Until: 10:00,             !- Field 13
    0.35,                     !- Field 14
    Until: 16:00,             !- Field 15
    0.15,                     !- Field 16
    Until: 17:00,             !- Field 17
    0.35,                     !- Field 18
    Until: 19:00,             !- Field 19
    0.50,                     !- Field 20
    Until: 21:00,             !- Field 21
    0.40,                     !- Field 22
    Until: 22:00,             !- Field 23
    0.30,                     !- Field 24
    Until: 23:00,             !- Field 25
    0.20,                     !- Field 26
    Until: 24:00,             !- Field 27
    0.10;                     !- Field 28

Schedule:Compact,         
    INFIL_QUARTER_ON_SCH,     !- Name
    Fraction,                 !- Schedule Type Limits Name
    Through: 12/31,           !- Field 1
    For: Weekdays SummerDesignDay,    !- Field 2
    Until: 06:00,             !- Field 3
    1.0,                      !- Field 4
    Until: 22:00,             !- Field 5
    0.25,                     !- Field 6
    Until: 24:00,             !- Field 7
    1.0,                      !- Field 8
    For: Saturday WinterDesignDay,    !- Field 9
    Until: 06:00,             !- Field 10
    1.0,                      !- Field 11
    Until: 18:00,             !- Field 12
    0.25,                     !- Field 13
    Until: 24:00,             !- Field 14
    1.0,                      !- Field 15
    For: Sunday Holidays AllOtherDays,    !- Field 16
    Until: 24:00,             !- Field 17
    1.0;                      !- Field 18

Schedule:Compact,         
    BLDG_OCC_SCH,             !- Name
    Fraction,                 !- Schedule Type Limits Name
    Through: 12/31,           !- Field 1
    For: SummerDesignDay,     !- Field 2
    Until: 06:00,             !- Field 3
    0.0,                      !- Field 4
    Until: 22:00,             !- Field 5
    1.0,                      !- Field 6
    Until: 24:00,             !- Field 7
    0.05,                     !- Field 8
    For: Weekdays,            !- Field 9
    Until: 06:00,             !- Field 10
    0.0,                      !- Field 11
    Until: 07:00,             !- Field 12
    0.1,                      !- Field 13
    Until: 08:00,             !- Field 14
    0.2,                      !- Field 15
    Until: 12:00,             !- Field 16
    0.95,                     !- Field 17
    Until: 13:00,             !- Field 18
    0.5,                      !- Field 19
    Until: 17:00,             !- Field 20
    0.95,                     !- Field 21
    Until: 18:00,             !- Field 22
    0.7,                      !- Field 23
    Until: 20:00,             !- Field 24
    0.4,                      !- Field 25
    Until: 22:00,             !- Field 26
    0.1,                      !- Field 27
    Until: 24:00,             !- Field 28
    0.05,                     !- Field 29
    For: Saturday,            !- Field 30
    Until: 06:00,             !- Field 31
    0.0,                      !- Field 32
    Until: 08:00,             !- Field 33
    0.1,                      !- Field 34
    Until: 14:00,             !- Field 35
    0.5,                      !- Field 36
    Until: 17:00,             !- Field 37
    0.1,                      !- Field 38
    Until: 24:00,             !- Field 39
    0.0,                      !- Field 40
    For: AllOtherDays,        !- Field 41
    Until: 24:00,             !- Field 42
    0.0;                      !- Field 43

Schedule:Compact,         
    BLDG_LIGHT_SCH,           !- Name
    Fraction,                 !- Schedule Type Limits Name
    Through: 12/31,           !- Field 1
    For: Weekdays,            !- Field 2
    Until: 05:00,             !- Field 3
    0.05,                     !- Field 4
    Until: 07:00,             !- Field 5
    0.1,                      !- Field 6
    Until: 08:00,             !- Field 7
    0.3,                      !- Field 8
    Until: 17:00,             !- Field 9
    0.9,                      !- Field 10
    Until: 18:00,             !- Field 11
    0.7,                      !- Field 12
    Until: 20:00,             !- Field 13
    0.5,                      !- Field 14
    Until: 22:00,             !- Field 15
    0.3,                      !- Field 16
    Until: 23:00,             !- Field 17
    0.1,                      !- Field 18
    Until: 24:00,             !- Field 19
    0.05,                     !- Field 20
    For: Saturday,            !- Field 21
    Until: 06:00,             !- Field 22
    0.05,                     !- Field 23
    Until: 08:00,             !- Field 24
    0.1,                      !- Field 25
    Until: 14:00,             !- Field 26
    0.5,                      !- Field 27
    Until: 17:00,             !- Field 28
    0.15,                     !- Field 29
    Until: 24:00,             !- Field 30
    0.05,                     !- Field 31
    For: SummerDesignDay,     !- Field 32
    Until: 24:00,             !- Field 33
    1.0,                      !- Field 34
    For: WinterDesignDay,     !- Field 35
    Until: 24:00,             !- Field 36
    0.0,                      !- Field 37
    For: AllOtherDays,        !- Field 38
    Until: 24:00,             !- Field 39
    0.05;                     !- Field 40

Schedule:Compact,         
    BLDG_EQUIP_SCH,           !- Name
    Fraction,                 !- Schedule Type Limits Name
    Through: 12/31,           !- Field 1
    For: Weekdays,            !- Field 2
    Until: 08:00,             !- Field 3
    0.40,                     !- Field 4
    Until: 12:00,             !- Field 5
    0.90,                     !- Field 6
    Until: 13:00,             !- Field 7
    0.80,                     !- Field 8
    Until: 17:00,             !- Field 9
    0.90,                     !- Field 10
    Until: 18:00,             !- Field 11
    0.80,                     !- Field 12
    Until: 20:00,             !- Field 13
    0.60,                     !- Field 14
    Until: 22:00,             !- Field 15
    0.50,                     !- Field 16
    Until: 24:00,             !- Field 17
    0.40,                     !- Field 18
    For: Saturday,            !- Field 19
    Until: 06:00,             !- Field 20
    0.30,                     !- Field 21
    Until: 08:00,             !- Field 22
    0.4,                      !- Field 23
    Until: 14:00,             !- Field 24
    0.5,                      !- Field 25
    Until: 17:00,             !- Field 26
    0.35,                     !- Field 27
    Until: 24:00,             !- Field 28
    0.30,                     !- Field 29
    For: SummerDesignDay,     !- Field 30
    Until: 24:00,             !- Field 31
    1.0,                      !- Field 32
    For: WinterDesignDay,     !- Field 33
    Until: 24:00,             !- Field 34
    0.0,                      !- Field 35
    For: AllOtherDays,        !- Field 36
    Until: 24:00,             !- Field 37
    0.30;                     !- Field 38

Schedule:Compact,         
    ACTIVITY_SCH,             !- Name
    Any Number,               !- Schedule Type Limits Name
    Through: 12/31,           !- Field 1
    For: AllDays,             !- Field 2
    Until: 24:00,             !- Field 3
    120;                      !- Field 4

Schedule:Compact,         
    WORK_EFF_SCH,             !- Name
    Fraction,                 !- Schedule Type Limits Name
    Through: 12/31,           !- Field 1
    For: AllDays,             !- Field 2
    Until: 24:00,             !- Field 3
    0.0;                      !- Field 4

Schedule:Compact,         
    AIR_VELO_SCH,             !- Name
    Any Number,               !- Schedule Type Limits Name
    Through: 12/31,           !- Field 1
    For: AllDays,             !- Field 2
    Until: 24:00,             !- Field 3
    0.2;                      !- Field 4

Schedule:Compact,         
    CLOTHING_SCH,             !- Name
    Any Number,               !- Schedule Type Limits Name
    Through: 04/30,           !- Field 1
    For: AllDays,             !- Field 2
    Until: 24:00,             !- Field 3
    1.0,                      !- Field 4
    Through: 09/30,           !- Field 5
    For: AllDays,             !- Field 6
    Until: 24:00,             !- Field 7
    0.5,                      !- Field 8
    Through: 12/31,           !- Field 9
    For: AllDays,             !- Field 10
    Until: 24:00,             !- Field 11
    1.0;                      !- Field 12

Schedule:Compact,         
    CLGSETP_SCH,              !- Name
    Temperature,              !- Schedule Type Limits Name
    Through: 12/31,           !- Field 1
    For: Weekdays SummerDesignDay,    !- Field 2
    Until: 06:00,             !- Field 3
    26.7,                     !- Field 4
    Until: 22:00,             !- Field 5
    24.0,                     !- Field 6
    Until: 24:00,             !- Field 7
    26.7,                     !- Field 8
    For: Saturday,            !- Field 9
    Until: 06:00,             !- Field 10
    26.7,                     !- Field 11
    Until: 18:00,             !- Field 12
    24.0,                     !- Field 13
    Until: 24:00,             !- Field 14
    26.7,                     !- Field 15
    For WinterDesignDay,      !- Field 16
    Until: 24:00,             !- Field 17
    26.7,                     !- Field 18
    For: AllOtherDays,        !- Field 19
    Until: 24:00,             !- Field 20
    26.7;                     !- Field 21

Schedule:Compact,         
    HTGSETP_SCH,              !- Name
    Temperature,              !- Schedule Type Limits Name
    Through: 12/31,           !- Field 1
    For: Weekdays,            !- Field 2
    Until: 06:00,             !- Field 3
    15.6,                     !- Field 4
    Until: 22:00,             !- Field 5
    21.0,                     !- Field 6
    Until: 24:00,             !- Field 7
    15.6,                     !- Field 8
    For SummerDesignDay,      !- Field 9
    Until: 24:00,             !- Field 10
    15.6,                     !- Field 11
    For: Saturday,            !- Field 12
    Until: 06:00,             !- Field 13
    15.6,                     !- Field 14
    Until: 18:00,             !- Field 15
    21.0,                     !- Field 16
    Until: 24:00,             !- Field 17
    15.6,                     !- Field 18
    For: WinterDesignDay,     !- Field 19
    Until: 24:00,             !- Field 20
    21.0,                     !- Field 21
    For: AllOtherDays,        !- Field 22
    Until: 24:00,             !- Field 23
    15.6;                     !- Field 24

Schedule:Compact,         
    Seasonal-Reset-Supply-Air-Temp-Sch,    !- Name
    Temperature,              !- Schedule Type Limits Name
    Through: 12/31,           !- Field 1
    For: AllDays,             !- Field 2
    Until: 24:00,             !- Field 3
    12.8;                     !- Field 4

Schedule:Compact,         
    MinOA_MotorizedDamper_Sched,    !- Name
    Fraction,                 !- Schedule Type Limits Name
    Through: 12/31,           !- Field 1
    For: Weekdays SummerDesignDay,    !- Field 2
    Until: 07:00,             !- Field 3
    0.0,                      !- Field 4
    Until: 22:00,             !- Field 5
    1.0,                      !- Field 6
    Until: 24:00,             !- Field 7
    0.0,                      !- Field 8
    For: Saturday WinterDesignDay,    !- Field 9
    Until: 07:00,             !- Field 10
    0.0,                      !- Field 11
    Until: 18:00,             !- Field 12
    1.0,                      !- Field 13
    Until: 24:00,             !- Field 14
    0.0,                      !- Field 15
    For: AllOtherDays,        !- Field 16
    Until: 24:00,             !- Field 17
    0.0;                      !- Field 18

Schedule:Compact,         
    Dual Zone Control Type Sched,    !- Name
    Control Type,             !- Schedule Type Limits Name
    Through: 12/31,           !- Field 1
    For: AllDays,             !- Field 2
    Until: 24:00,             !- Field 3
    4;                        !- Field 4

Schedule:Compact,         
    HVACOperationSchd,        !- Name
    On/Off,                   !- Schedule Type Limits Name
    Through: 12/31,           !- Field 1
    For: Weekdays SummerDesignDay,    !- Field 2
    Until: 06:00,             !- Field 3
    0.0,                      !- Field 4
    Until: 22:00,             !- Field 5
    1.0,                      !- Field 6
    Until: 24:00,             !- Field 7
    0.0,                      !- Field 8
    For: Saturday WinterDesignDay,    !- Field 9
    Until: 06:00,             !- Field 10
    0.0,                      !- Field 11
    Until: 18:00,             !- Field 12
    1.0,                      !- Field 13
    Until: 24:00,             !- Field 14
    0.0,                      !- Field 15
    For: AllOtherDays,        !- Field 16
    Until: 24:00,             !- Field 17
    0.0;                      !- Field 18

Schedule:Compact,         
    CW-Loop-Temp-Schedule,    !- Name
    Temperature,              !- Schedule Type Limits Name
    Through: 12/31,           !- Field 1
    For: AllDays,             !- Field 2
    Until: 24:00,             !- Field 3
    6.7;                      !- Field 4

Schedule:Compact,         
    HW-Loop-Temp-Schedule,    !- Name
    Temperature,              !- Schedule Type Limits Name
    Through: 12/31,           !- Field 1
    For: AllDays,             !- Field 2
    Until: 24:00,             !- Field 3
    82.2;                     !- Field 4

Schedule:Compact,         
    BLDG_SWH_SCH,             !- Name
    Fraction,                 !- Schedule Type Limits Name
    Through: 12/31,           !- Field 1
    For: Weekdays SummerDesignDay,    !- Field 2
    Until: 05:00,             !- Field 3
    0.05,                     !- Field 4
    Until: 06:00,             !- Field 5
    0.08,                     !- Field 6
    Until: 07:00,             !- Field 7
    0.07,                     !- Field 8
    Until: 08:00,             !- Field 9
    0.19,                     !- Field 10
    Until: 09:00,             !- Field 11
    0.35,                     !- Field 12
    Until: 10:00,             !- Field 13
    0.38,                     !- Field 14
    Until: 11:00,             !- Field 15
    0.39,                     !- Field 16
    Until: 12:00,             !- Field 17
    0.47,                     !- Field 18
    Until: 13:00,             !- Field 19
    0.57,                     !- Field 20
    Until: 14:00,             !- Field 21
    0.54,                     !- Field 22
    Until: 15:00,             !- Field 23
    0.34,                     !- Field 24
    Until: 16:00,             !- Field 25
    0.33,                     !- Field 26
    Until: 17:00,             !- Field 27
    0.44,                     !- Field 28
    Until: 18:00,             !- Field 29
    0.26,                     !- Field 30
    Until: 19:00,             !- Field 31
    0.21,                     !- Field 32
    Until: 20:00,             !- Field 33
    0.15,                     !- Field 34
    Until: 21:00,             !- Field 35
    0.17,                     !- Field 36
    Until: 22:00,             !- Field 37
    0.08,                     !- Field 38
    Until: 24:00,             !- Field 39
    0.05,                     !- Field 40
    For: Saturday WinterDesignDay,    !- Field 41
    Until: 05:00,             !- Field 42
    0.05,                     !- Field 43
    Until: 06:00,             !- Field 44
    0.08,                     !- Field 45
    Until: 07:00,             !- Field 46
    0.07,                     !- Field 47
    Until: 08:00,             !- Field 48
    0.11,                     !- Field 49
    Until: 09:00,             !- Field 50
    0.15,                     !- Field 51
    Until: 10:00,             !- Field 52
    0.21,                     !- Field 53
    Until: 11:00,             !- Field 54
    0.19,                     !- Field 55
    Until: 12:00,             !- Field 56
    0.23,                     !- Field 57
    Until: 13:00,             !- Field 58
    0.20,                     !- Field 59
    Until: 14:00,             !- Field 60
    0.19,                     !- Field 61
    Until: 15:00,             !- Field 62
    0.15,                     !- Field 63
    Until: 16:00,             !- Field 64
    0.13,                     !- Field 65
    Until: 17:00,             !- Field 66
    0.14,                     !- Field 67
    Until: 21:00,             !- Field 68
    0.07,                     !- Field 69
    Until: 22:00,             !- Field 70
    0.09,                     !- Field 71
    Until: 24:00,             !- Field 72
    0.05,                     !- Field 73
    For: AllOtherDays,        !- Field 74
    Until: 05:00,             !- Field 75
    0.04,                     !- Field 76
    Until: 06:00,             !- Field 77
    0.07,                     !- Field 78
    Until: 11:00,             !- Field 79
    0.04,                     !- Field 80
    Until: 13:00,             !- Field 81
    0.06,                     !- Field 82
    Until: 14:00,             !- Field 83
    0.09,                     !- Field 84
    Until: 15:00,             !- Field 85
    0.06,                     !- Field 86
    Until: 21:00,             !- Field 87
    0.04,                     !- Field 88
    Until: 22:00,             !- Field 89
    0.07,                     !- Field 90
    Until: 24:00,             !- Field 91
    0.04;                     !- Field 92

Schedule:Compact,         
    Water Equipment Latent fract sched,    !- Name
    Fraction,                 !- Schedule Type Limits Name
    Through: 12/31,           !- Field 1
    For: AllDays,             !- Field 2
    Until: 24:00,             !- Field 3
    0.05;                     !- Field 4

Schedule:Compact,         
    Water Equipment Sensible fract sched,    !- Name
    Fraction,                 !- Schedule Type Limits Name
    Through: 12/31,           !- Field 1
    For: AllDays,             !- Field 2
    Until: 24:00,             !- Field 3
    0.2;                      !- Field 4

Schedule:Compact,         
    SWHSys1 Water Heater Ambient Temperature Schedule Name,    !- Name
    Temperature,              !- Schedule Type Limits Name
    Through: 12/31,           !- Field 1
    For: AllDays,             !- Field 2
    Until: 24:00,             !- Field 3
    22.0;                     !- Field 4

Schedule:Compact,         
    Water Equipment Temp Sched,    !- Name
    Temperature,              !- Schedule Type Limits Name
    Through: 12/31,           !- Field 1
    For: AllDays,             !- Field 2
    Until: 24:00,             !- Field 3
    43.3;                     !- Field 4

Schedule:Compact,         
    Water Equipment Hot Supply Temp Sched,    !- Name
    Temperature,              !- Schedule Type Limits Name
    Through: 12/31,           !- Field 1
    For: AllDays,             !- Field 2
    Until: 24:00,             !- Field 3
    43.3;                     !- Field 4

Schedule:Compact,         
    SWHSys1 Water Heater Setpoint Temperature Schedule Name,    !- Name
    Temperature,              !- Schedule Type Limits Name
    Through: 12/31,           !- Field 1
    For: AllDays,             !- Field 2
    Until: 24:00,             !- Field 3
    60.0;                     !- Field 4

Schedule:Compact,         
    SWHSys1-Loop-Temp-Schedule,    !- Name
    Temperature,              !- Schedule Type Limits Name
    Through: 12/31,           !- Field 1
    For: AllDays,             !- Field 2
    Until: 24:00,             !- Field 3
    60.0;                     !- Field 4

InternalMass,             
    Basement Internal Mass,    !- Name
    InteriorFurnishings,      !- Construction Name
    Basement,                 !- Zone Name
    7126.2120;                !- Surface Area

InternalMass,             
    Core_bottom Internal Mass,    !- Name
    InteriorFurnishings,      !- Construction Name
    Core_bottom,              !- Zone Name
    5064.6464;                !- Surface Area

InternalMass,             
    Core_mid Internal Mass,    !- Name
    InteriorFurnishings,      !- Construction Name
    Core_mid,                 !- Zone Name
    5064.6464;                !- Surface Area

InternalMass,             
    Core_top Internal Mass,    !- Name
    InteriorFurnishings,      !- Construction Name
    Core_top,                 !- Zone Name
    5064.6464;                !- Surface Area

InternalMass,             
    Perimeter_bot_ZN_1 Internal Mass,    !- Name
    InteriorFurnishings,      !- Construction Name
    Perimeter_bot_ZN_1,       !- Zone Name
    626.8394;                 !- Surface Area

InternalMass,             
    Perimeter_bot_ZN_2 Internal Mass,    !- Name
    InteriorFurnishings,      !- Construction Name
    Perimeter_bot_ZN_2,       !- Zone Name
    403.9503;                 !- Surface Area

InternalMass,             
    Perimeter_bot_ZN_3 Internal Mass,    !- Name
    InteriorFurnishings,      !- Construction Name
    Perimeter_bot_ZN_3,       !- Zone Name
    626.8257;                 !- Surface Area

InternalMass,             
    Perimeter_bot_ZN_4 Internal Mass,    !- Name
    InteriorFurnishings,      !- Construction Name
    Perimeter_bot_ZN_4,       !- Zone Name
    403.9503;                 !- Surface Area

InternalMass,             
    Perimeter_mid_ZN_1 Internal Mass,    !- Name
    InteriorFurnishings,      !- Construction Name
    Perimeter_mid_ZN_1,       !- Zone Name
    626.8394;                 !- Surface Area

InternalMass,             
    Perimeter_mid_ZN_2 Internal Mass,    !- Name
    InteriorFurnishings,      !- Construction Name
    Perimeter_mid_ZN_2,       !- Zone Name
    403.9503;                 !- Surface Area

InternalMass,             
    Perimeter_mid_ZN_3 Internal Mass,    !- Name
    InteriorFurnishings,      !- Construction Name
    Perimeter_mid_ZN_3,       !- Zone Name
    626.8257;                 !- Surface Area

InternalMass,             
    Perimeter_mid_ZN_4 Internal Mass,    !- Name
    InteriorFurnishings,      !- Construction Name
    Perimeter_mid_ZN_4,       !- Zone Name
    403.9503;                 !- Surface Area

InternalMass,             
    Perimeter_top_ZN_1 Internal Mass,    !- Name
    InteriorFurnishings,      !- Construction Name
    Perimeter_top_ZN_1,       !- Zone Name
    626.8394;                 !- Surface Area

InternalMass,             
    Perimeter_top_ZN_2 Internal Mass,    !- Name
    InteriorFurnishings,      !- Construction Name